11
cisplatin
Pt        0.0000     0.0000     0.0000
Cl        2.3000     0.0000     0.0000
Cl        0.0000     2.3000     0.0000
N        -2.3000     0.0000     0.0000
N         0.0000    -2.3000     0.0000
H        -2.9000     0.8000     0.0000
H        -2.9000    -0.8000     0.0000
H        -2.3000     0.0000     1.0000
H         0.8000    -2.9000     0.0000
H        -0.8000    -2.9000     0.0000
H         0.0000    -2.3000    -1.0000
