25

C          1.53037        1.32549        0.01696
C          0.18424        1.69571        0.01972
C         -0.76990        0.67054        0.00083
C         -0.43059       -0.68441       -0.02309
C          0.93779       -1.03400       -0.02354
C          1.89414       -0.01421       -0.00328
O          3.22988       -0.29822       -0.00070
C         -1.65577       -1.43142       -0.04308
C         -2.68492       -0.50898       -0.02331
N         -2.14236        0.74545        0.00236
C         -1.81930       -2.92158       -0.07925
C         -1.91028       -3.45791       -1.51358
N         -2.10946       -4.90841       -1.54366
H          2.30055        2.09293        0.03271
H         -0.10408        2.74116        0.03758
H          1.22836       -2.07786       -0.03596
H          3.33701       -1.26338       -0.00138
H         -3.75873       -0.64388       -0.02468
H         -2.66768        1.60839        0.02195
H         -2.72909       -3.19367        0.47254
H         -0.98385       -3.39788        0.44893
H         -0.99916       -3.21036       -2.07027
H         -2.74752       -2.98194       -2.03697
H         -1.28637       -5.37603       -1.16592
H         -2.18863       -5.21244       -2.51339
